MOL
     RDKit          3D

 70 74  0  0  0  0  0  0  0  0999 V2000
  -25.7070    8.2510  -14.7090 N   0  0  0  0  0  0  0  0  0  0  0  0
  -28.8630    1.8220  -14.5400 C   0  0  0  0  0  0  0  0  0  0  0  0
  -27.5570    2.1270  -14.0220 O   0  0  0  0  0  0  0  0  0  0  0  0
  -26.4170   14.3600  -11.9150 Cl  0  0  0  0  0  0  0  0  0  0  0  0
  -21.9280   11.0790   -9.3760 Cl  0  0  0  0  0  0  0  0  0  0  0  0
  -26.9730    3.3480  -14.2070 C   0  0  0  0  0  0  0  0  0  0  0  0
  -23.7280    7.3870  -14.9700 N   0  0  0  0  0  0  0  0  0  0  0  0
  -23.7510    4.9500  -13.4150 O   0  0  0  0  0  0  0  0  0  0  0  0
  -27.6360    4.3900  -14.8720 C   0  0  0  0  0  0  0  0  0  0  0  0
  -21.6950    6.4020  -15.7100 N   0  0  0  0  0  0  0  0  0  0  0  0
  -19.0270    5.4380  -17.9570 O   0  0  0  0  0  0  0  0  0  0  0  0
  -27.0030    5.6430  -15.0330 C   0  0  0  0  0  0  0  0  0  0  0  0
  -19.0960    7.0880  -16.4230 N   0  0  0  0  0  0  0  0  0  0  0  0
  -23.6670    5.8390  -16.5680 O   0  0  0  0  0  0  0  0  0  0  0  0
  -25.6780    3.5120  -13.7320 C   0  0  0  0  0  0  0  0  0  0  0  0
  -25.0210    4.7420  -13.8780 C   0  0  0  0  0  0  0  0  0  0  0  0
  -23.0770    3.9270  -12.6400 C   0  0  0  0  0  0  0  0  0  0  0  0
  -22.0630    4.5960  -11.7180 C   0  0  0  0  0  0  0  0  0  0  0  0
  -22.4450    2.9000  -13.5860 C   0  0  0  0  0  0  0  0  0  0  0  0
  -25.7160    5.8490  -14.5590 C   0  0  0  0  0  0  0  0  0  0  0  0
  -25.0320    7.1730  -14.7100 C   0  0  0  0  0  0  0  0  0  0  0  0
  -24.7920    9.3670  -15.0380 C   0  0  0  0  0  0  0  0  0  0  0  0
  -25.1940   10.6170  -14.3010 C   0  0  0  0  0  0  0  0  0  0  0  0
  -25.7910   10.5280  -13.0190 C   0  0  0  0  0  0  0  0  0  0  0  0
  -26.1560   11.6770  -12.2540 C   0  0  0  0  0  0  0  0  0  0  0  0
  -25.9350   12.9210  -12.8640 C   0  0  0  0  0  0  0  0  0  0  0  0
  -25.3550   13.0350  -14.1450 C   0  0  0  0  0  0  0  0  0  0  0  0
  -24.9800   11.8740  -14.8650 C   0  0  0  0  0  0  0  0  0  0  0  0
  -23.3300    8.7740  -14.7400 C   0  0  0  0  0  0  0  0  0  0  0  0
  -22.8970    9.2330  -13.3740 C   0  0  0  0  0  0  0  0  0  0  0  0
  -23.3000    8.5790  -12.1900 C   0  0  0  0  0  0  0  0  0  0  0  0
  -22.9880    9.1230  -10.9420 C   0  0  0  0  0  0  0  0  0  0  0  0
  -22.2600   10.3210  -10.9420 C   0  0  0  0  0  0  0  0  0  0  0  0
  -21.8670   10.9940  -12.0870 C   0  0  0  0  0  0  0  0  0  0  0  0
  -22.1980   10.4510  -13.3260 C   0  0  0  0  0  0  0  0  0  0  0  0
  -23.0150    6.5380  -15.7570 C   0  0  0  0  0  0  0  0  0  0  0  0
  -20.8510    6.9550  -14.6470 C   0  0  0  0  0  0  0  0  0  0  0  0
  -19.7650    7.7770  -15.3160 C   0  0  0  0  0  0  0  0  0  0  0  0
  -19.6240    6.0370  -17.0660 C   0  0  0  0  0  0  0  0  0  0  0  0
  -21.0060    5.5640  -16.6970 C   0  0  0  0  0  0  0  0  0  0  0  0
  -29.5400    2.6490  -14.3270 H   0  0  0  0  0  0  0  0  0  0  0  0
  -28.8010    1.6720  -15.6180 H   0  0  0  0  0  0  0  0  0  0  0  0
  -29.2390    0.9150  -14.0670 H   0  0  0  0  0  0  0  0  0  0  0  0
  -28.6410    4.2330  -15.2650 H   0  0  0  0  0  0  0  0  0  0  0  0
  -27.5310    6.4550  -15.5340 H   0  0  0  0  0  0  0  0  0  0  0  0
  -18.1890    7.4230  -16.7170 H   0  0  0  0  0  0  0  0  0  0  0  0
  -25.1700    2.6800  -13.2430 H   0  0  0  0  0  0  0  0  0  0  0  0
  -23.7810    3.3820  -12.0110 H   0  0  0  0  0  0  0  0  0  0  0  0
  -21.1910    4.9000  -12.2970 H   0  0  0  0  0  0  0  0  0  0  0  0
  -22.5150    5.4730  -11.2550 H   0  0  0  0  0  0  0  0  0  0  0  0
  -21.7560    3.8930  -10.9430 H   0  0  0  0  0  0  0  0  0  0  0  0
  -21.4470    2.6450  -13.2300 H   0  0  0  0  0  0  0  0  0  0  0  0
  -23.0610    2.0010  -13.6120 H   0  0  0  0  0  0  0  0  0  0  0  0
  -22.3760    3.3230  -14.5880 H   0  0  0  0  0  0  0  0  0  0  0  0
  -24.8210    9.7050  -16.0740 H   0  0  0  0  0  0  0  0  0  0  0  0
  -25.9800    9.5400  -12.5990 H   0  0  0  0  0  0  0  0  0  0  0  0
  -26.5820   11.5930  -11.2540 H   0  0  0  0  0  0  0  0  0  0  0  0
  -25.1950   14.0200  -14.5830 H   0  0  0  0  0  0  0  0  0  0  0  0
  -24.5270   11.9630  -15.8530 H   0  0  0  0  0  0  0  0  0  0  0  0
  -22.4380    9.0480  -15.3030 H   0  0  0  0  0  0  0  0  0  0  0  0
  -23.8580    7.6440  -12.2500 H   0  0  0  0  0  0  0  0  0  0  0  0
  -23.2950    8.6400  -10.0140 H   0  0  0  0  0  0  0  0  0  0  0  0
  -21.3100   11.9290  -12.0200 H   0  0  0  0  0  0  0  0  0  0  0  0
  -21.9190   10.9640  -14.2460 H   0  0  0  0  0  0  0  0  0  0  0  0
  -20.4160    6.1570  -14.0450 H   0  0  0  0  0  0  0  0  0  0  0  0
  -21.4460    7.5870  -13.9880 H   0  0  0  0  0  0  0  0  0  0  0  0
  -20.2500    8.6570  -15.7380 H   0  0  0  0  0  0  0  0  0  0  0  0
  -19.0160    8.0320  -14.5670 H   0  0  0  0  0  0  0  0  0  0  0  0
  -21.6010    5.6090  -17.6090 H   0  0  0  0  0  0  0  0  0  0  0  0
  -20.9240    4.5560  -16.2900 H   0  0  0  0  0  0  0  0  0  0  0  0
  1 21  2  0
  1 22  1  0
  2  3  1  0
  2 41  1  0
  2 42  1  0
  2 43  1  0
  3  6  1  0
  4 26  1  0
  5 33  1  0
  6  9  2  0
  6 15  1  0
  7 21  1  0
  7 29  1  0
  7 36  1  0
  8 16  1  0
  8 17  1  0
  9 12  1  0
  9 44  1  0
 10 36  1  0
 10 37  1  0
 10 40  1  0
 11 39  2  0
 12 20  2  0
 12 45  1  0
 13 38  1  0
 13 39  1  0
 13 46  1  0
 14 36  2  0
 15 16  2  0
 15 47  1  0
 16 20  1  0
 17 18  1  0
 17 19  1  0
 17 48  1  0
 18 49  1  0
 18 50  1  0
 18 51  1  0
 19 52  1  0
 19 53  1  0
 19 54  1  0
 20 21  1  0
 22 23  1  0
 22 29  1  0
 22 55  1  0
 23 24  2  0
 23 28  1  0
 24 25  1  0
 24 56  1  0
 25 26  2  0
 25 57  1  0
 26 27  1  0
 27 28  2  0
 27 58  1  0
 28 59  1  0
 29 30  1  0
 29 60  1  0
 30 31  2  0
 30 35  1  0
 31 32  1  0
 31 61  1  0
 32 33  2  0
 32 62  1  0
 33 34  1  0
 34 35  2  0
 34 63  1  0
 35 64  1  0
 37 38  1  0
 37 65  1  0
 37 66  1  0
 38 67  1  0
 38 68  1  0
 39 40  1  0
 40 69  1  0
 40 70  1  0
M  END
$$$$
